Circuit: * C:\Users\buggi\Documents\GitHub\stft\LT\boost.asc

Direct Newton iteration for .op point succeeded.
Heightened Def Con from 0.0175 to 0.0175
Heightened Def Con from 0.0232 to 0.0232
Heightened Def Con from 0.027 to 0.027

Date: Mon Jan 04 23:47:43 2021
Total elapsed time: 4.849 seconds.

tnom = 27
temp = 27
method = modified trap
totiter = 952737
traniter = 952731
tranpoints = 290282
accept = 211513
rejected = 78772
matrix size = 10
fillins = 0
solver = Normal
Matrix Compiler1: 534 bytes object code size  0.4/0.3/[0.2]
Matrix Compiler2: 734 bytes object code size  0.2/0.2/[0.1]

